24
gly-gly-gly.out	Energy:    -174.7655800
N         -2.04230       -2.89390        2.81300
H         -1.13560       -3.27750        2.63740
C         -2.02210       -1.44800        2.54880
H         -2.71180       -3.33290        2.21390
C         -1.63580       -1.20010        1.07880
H         -2.99220       -1.03750        2.73680
H         -1.30570       -0.97820        3.18990
O         -0.88210       -2.01130        0.48090
N         -2.14750       -0.01590        0.37400
H         -2.23950       -0.22170       -0.60020
C         -1.21100        1.10310        0.55210
C         -1.74710        2.34360       -0.18620
H         -1.11250        1.32330        1.59460
H         -0.25520        0.83540        0.15230
O         -2.98730        2.50950       -0.31940
N         -0.80990        3.33410       -0.73540
H          0.01930        3.35400       -0.17680
C         -1.43940        4.66250       -0.72550
C         -0.45770        5.70010       -1.30080
H         -2.32670        4.64120       -1.32320
H         -1.69250        4.92970        0.27920
O          0.82490        5.52860       -1.16310
O         -0.91070        6.74840       -1.92470
H         -0.29860        7.39520       -2.28340
